Version 4
SHEET 1 1968 1696
WIRE 112 368 -80 368
WIRE 240 368 112 368
WIRE 384 368 384 336
WIRE 384 368 240 368
WIRE 512 368 384 368
WIRE 704 368 512 368
WIRE 944 368 704 368
WIRE 512 400 512 368
WIRE 704 400 704 368
WIRE 112 448 112 368
WIRE 240 448 240 368
WIRE 512 512 512 464
WIRE 704 560 704 480
WIRE -80 592 -80 368
WIRE -448 608 -448 592
WIRE -304 608 -304 592
WIRE 112 608 112 512
WIRE 112 608 16 608
WIRE 240 608 240 512
WIRE 240 608 112 608
WIRE 336 608 240 608
WIRE 512 608 512 576
WIRE 512 608 416 608
WIRE 640 608 512 608
WIRE 16 640 16 608
WIRE 944 656 944 368
WIRE 704 704 704 656
WIRE 880 704 704 704
WIRE -448 784 -448 688
WIRE -304 784 -304 688
WIRE 384 784 288 784
WIRE 832 784 464 784
WIRE 944 816 944 752
WIRE -240 832 -352 832
WIRE 704 832 704 768
WIRE -240 848 -240 832
WIRE -80 896 -80 656
WIRE -80 896 -192 896
WIRE 144 896 -80 896
WIRE 384 896 144 896
WIRE 384 928 384 896
WIRE 480 928 384 928
WIRE 832 928 832 784
WIRE 944 928 944 896
WIRE 944 928 832 928
WIRE 1136 928 944 928
WIRE 1296 928 1216 928
WIRE 704 944 704 896
WIRE 704 944 544 944
WIRE 944 944 944 928
WIRE 288 960 288 784
WIRE 480 960 288 960
WIRE -240 976 -240 928
WIRE 144 992 144 896
WIRE 704 992 704 944
WIRE 288 1024 288 960
WIRE 944 1056 944 1024
WIRE -80 1104 -80 896
WIRE 704 1104 704 1056
WIRE 880 1104 704 1104
WIRE -480 1136 -480 1088
WIRE 704 1136 704 1104
WIRE 144 1184 144 1056
WIRE 144 1184 48 1184
WIRE 288 1184 288 1104
WIRE 288 1184 144 1184
WIRE 416 1184 288 1184
WIRE 560 1184 496 1184
WIRE 640 1184 560 1184
WIRE 560 1248 560 1184
WIRE -480 1264 -480 1216
WIRE 48 1264 48 1184
WIRE 144 1312 144 1184
WIRE 288 1312 288 1184
WIRE 704 1312 704 1232
WIRE 560 1376 560 1312
WIRE -80 1504 -80 1168
WIRE 144 1504 144 1376
WIRE 144 1504 -80 1504
WIRE 288 1504 288 1376
WIRE 288 1504 144 1504
WIRE 432 1504 288 1504
WIRE 560 1504 560 1440
WIRE 560 1504 432 1504
WIRE 704 1504 704 1392
WIRE 704 1504 560 1504
WIRE 944 1504 944 1152
WIRE 944 1504 704 1504
WIRE 432 1552 432 1504
FLAG -448 784 0
FLAG -304 784 0
FLAG -448 592 +15V
FLAG -304 592 -15V
FLAG 16 640 0
FLAG 384 336 +15V
FLAG 48 1264 0
FLAG 432 1552 -15V
FLAG -352 832 INPUT
IOPIN -352 832 In
FLAG 1296 928 Outupt
IOPIN 1296 928 Out
FLAG -480 1264 0
FLAG -480 1088 INPUT
IOPIN -480 1088 In
FLAG 512 912 -15V
FLAG 512 976 +15V
FLAG -240 976 0
SYMBOL pnp 640 560 R0
SYMATTR InstName Q1
SYMATTR Value 2N5401
SYMBOL npn 640 1136 R0
SYMATTR InstName Q2
SYMATTR Value 2N5551
SYMBOL npn 880 656 R0
SYMATTR InstName Q3
SYMATTR Value Qmje15032
SYMBOL pnp 880 1056 R0
SYMATTR InstName Q4
SYMATTR Value Qmje15033
SYMBOL voltage -448 592 R0
WINDOW 123 0 0 Left 2
WINDOW 39 0 0 Left 2
SYMATTR InstName V3
SYMATTR Value +15
SYMBOL voltage -304 592 R0
WINDOW 123 0 0 Left 2
WINDOW 39 0 0 Left 2
SYMATTR InstName V4
SYMATTR Value -15
SYMBOL diode -64 656 R180
WINDOW 0 24 64 Left 2
WINDOW 3 24 0 Left 2
SYMATTR InstName D1
SYMATTR Value 1N4148
SYMBOL cap 96 448 R0
SYMATTR InstName C1
SYMATTR Value 0.1µ
SYMBOL polcap 224 448 R0
SYMATTR InstName C2
SYMATTR Value 10µ
SYMBOL res 320 624 R270
WINDOW 0 32 56 VTop 2
WINDOW 3 0 56 VBottom 2
SYMATTR InstName R1
SYMATTR Value 1k
SYMBOL diode -64 1168 R180
WINDOW 0 24 64 Left 2
WINDOW 3 24 0 Left 2
SYMATTR InstName D2
SYMATTR Value 1N4148
SYMBOL diode 496 400 R0
SYMATTR InstName D3
SYMATTR Value 1N4148
SYMBOL diode 496 512 R0
SYMATTR InstName D4
SYMATTR Value 1N4148
SYMBOL res 688 384 R0
SYMATTR InstName R2
SYMATTR Value 56
SYMBOL diode 688 704 R0
SYMATTR InstName D5
SYMATTR Value 1N4148
SYMBOL diode 688 832 R0
SYMATTR InstName D6
SYMATTR Value 1N4148
SYMBOL diode 688 992 R0
SYMATTR InstName D7
SYMATTR Value 1N4148
SYMBOL diode 544 1248 R0
SYMATTR InstName D8
SYMATTR Value 1N4148
SYMBOL diode 544 1376 R0
SYMATTR InstName D9
SYMATTR Value 1N4148
SYMBOL res 688 1296 R0
SYMATTR InstName R3
SYMATTR Value 56
SYMBOL res 400 1200 R270
WINDOW 0 32 56 VTop 2
WINDOW 3 0 56 VBottom 2
SYMATTR InstName R4
SYMATTR Value 1k
SYMBOL polcap 272 1312 R0
SYMATTR InstName C3
SYMATTR Value 10µ
SYMBOL cap 128 1312 R0
SYMATTR InstName C4
SYMATTR Value 0.1µ
SYMBOL cap 128 992 R0
SYMATTR InstName C5
SYMATTR Value 680p
SYMBOL res 272 1008 R0
SYMATTR InstName R5
SYMATTR Value 1k
SYMBOL res 928 800 R0
SYMATTR InstName R6
SYMATTR Value 10
SYMBOL res 928 928 R0
SYMATTR InstName R7
SYMATTR Value 10
SYMBOL res 480 768 R90
WINDOW 0 0 56 VBottom 2
WINDOW 3 32 56 VTop 2
SYMATTR InstName R8
SYMATTR Value 3.3k
SYMBOL res 1232 912 R90
WINDOW 0 0 56 VBottom 2
WINDOW 3 32 56 VTop 2
SYMATTR InstName R9
SYMATTR Value 56
SYMBOL voltage -480 1120 R0
WINDOW 123 24 124 Left 2
WINDOW 39 0 0 Left 2
SYMATTR Value2 AC 1
SYMATTR InstName V5
SYMATTR Value SINE(0 2 1k)
SYMBOL opamp2 512 1008 M180
SYMATTR InstName U1
SYMATTR Value OP275
SYMBOL potentiometer -256 832 R0
SYMATTR InstName U2
SYMATTR Value Rtot=10K wiper=0.5
TEXT -568 1448 Left 3 !.inc 2N5551.LIB
TEXT -568 1408 Left 3 !.inc MJE15032.LIB
TEXT -576 1488 Left 3 !.inc MJE15033.SP2
TEXT -584 1608 Left 5 !.ac dec 100 1k 0.5geg
TEXT -568 1360 Left 3 !.inc OP275.cir
TEXT -568 1320 Left 3 !.inc potentiometer_standard.lib
TEXT -584 1536 Left 3 !.options plotwinsize=0
TEXT -576 1680 Left 2 !;tran 0 10m 0 0.05m
TEXT -568 936 Left 2 !;dc V5 -15 15 0.01
