Version 4
SHEET 1 956 680
WIRE 672 -16 560 -16
WIRE 672 32 672 -16
WIRE 112 96 0 96
WIRE 112 112 112 96
WIRE 672 144 672 112
WIRE 768 144 672 144
WIRE 256 160 160 160
WIRE 672 176 672 144
WIRE -192 192 -192 144
WIRE 112 240 112 192
WIRE 672 304 672 256
WIRE -192 320 -192 272
FLAG 0 96 INPUT
IOPIN 0 96 In
FLAG 112 240 0
FLAG -192 320 0
FLAG -192 144 INPUT
IOPIN -192 144 In
FLAG 672 304 0
FLAG 560 -16 INPUT
IOPIN 560 -16 In
FLAG 256 160 OUTPUT1
IOPIN 256 160 Out
FLAG 768 144 OUTPUT2
IOPIN 768 144 Out
SYMBOL potentiometer 96 96 R0
SYMATTR InstName U1
SYMATTR Value Rtot=10K wiper=0.8
SYMBOL voltage -192 176 R0
WINDOW 123 24 124 Left 2
WINDOW 39 0 0 Left 2
SYMATTR Value2 AC 1
SYMATTR InstName V1
SYMATTR Value SINE(0 2 1k)
SYMBOL res 656 16 R0
SYMATTR InstName R1
SYMATTR Value 2k
SYMBOL res 656 160 R0
SYMATTR InstName R2
SYMATTR Value 8k
TEXT -232 368 Left 3 !.inc potentiometer_standard.lib
TEXT -232 448 Left 2 !.tran 0 10m 0 0.05m
